  
       XFOIL         Version 6.99
  
 Calculated polar for: NACA 9220                                       
  
 1 1 Reynolds number fixed          Mach number fixed         
  
 xtrf =   1.000 (top)        1.000 (bottom)  
 Mach =   0.000     Re =     1.000 e 6     Ncrit =   9.000  9.000
  
   alpha    CL        CD       CDp       CM     Top_Xtr  Bot_Xtr  Top_Itr  Bot_Itr
  ------ -------- --------- --------- -------- -------- -------- -------- --------
  -8.600   0.3489   0.08258   0.06833  -0.1134   0.4279   0.0181  31.2212  98.1973
  -8.400   0.3547   0.08087   0.06692  -0.1139   0.4097   0.0182  32.1602  98.2473
  -8.200   0.3602   0.07917   0.06549  -0.1143   0.3909   0.0184  33.1384  98.3104
  -8.000   0.3654   0.07744   0.06403  -0.1148   0.3719   0.0186  34.1442  98.3875
  -7.800   0.3702   0.07569   0.06254  -0.1153   0.3531   0.0189  35.1536  98.4781
  -7.600   0.3746   0.07389   0.06100  -0.1158   0.3353   0.0192  36.1285  98.5797
  -7.400   0.3784   0.07201   0.05937  -0.1163   0.3193   0.0196  37.0223  98.6941
  -7.200   0.3788   0.06932   0.05647  -0.1178   0.3113   0.0203  37.4772  98.9329
  -7.000   0.3555   0.07330   0.06776  -0.1189   0.3196   0.0196  37.0030  98.6829
  -3.400   0.5005   0.03918   0.03053  -0.1304   0.2499   0.0243  41.2516 100.1437
  -3.200   0.5133   0.03821   0.02955  -0.1295   0.2489   0.0245  41.3143 100.1997
  -3.000   0.5260   0.03723   0.02850  -0.1285   0.2480   0.0247  41.3754 100.2757
  -2.800   0.5381   0.03624   0.02739  -0.1273   0.2472   0.0251  41.4339 100.3848
  -2.600   0.5472   0.03525   0.02622  -0.1253   0.2464   0.0257  41.4873 100.5465
  -1.600   0.6165   0.01770   0.00634  -0.1168   0.2432   0.0277  41.7037 101.1220
  -1.400   0.6332   0.01794   0.00656  -0.1159   0.2421   0.0279  41.7769 101.1770
  -0.800   0.6860   0.01725   0.00550  -0.1136   0.2392   0.0295  41.9772 101.6230
  -0.600   0.7063   0.01680   0.00481  -0.1133   0.2387   0.0305  42.0089 101.9104
  -0.400   0.7266   0.01655   0.00450  -0.1131   0.2385   0.0312  42.0248 102.1121
  -0.200   0.7460   0.01659   0.00452  -0.1127   0.2383   0.0317  42.0423 102.2416
   0.000   0.7652   0.01663   0.00450  -0.1123   0.2380   0.0322  42.0612 102.3797
   0.200   0.7843   0.01665   0.00442  -0.1119   0.2377   0.0329  42.0811 102.5481
   0.400   0.8033   0.01665   0.00428  -0.1114   0.2375   0.0336  42.1019 102.7479
   0.600   0.8222   0.01667   0.00413  -0.1110   0.2372   0.0344  42.1235 102.9379
   0.800   0.8413   0.01662   0.00403  -0.1106   0.2369   0.0351  42.1456 103.1361
   1.000   0.8598   0.01673   0.00408  -0.1101   0.2365   0.0358  42.1681 103.3070
   1.200   0.8780   0.01687   0.00410  -0.1096   0.2362   0.0366  42.1908 103.5088
   1.400   0.8960   0.01701   0.00409  -0.1091   0.2359   0.0377  42.2145 103.7685
   1.600   0.9140   0.01717   0.00406  -0.1085   0.2355   0.0386  42.2405 103.9917
   1.800   0.9325   0.01722   0.00408  -0.1082   0.2352   0.0396  42.2682 104.2417
   2.000   0.9504   0.01740   0.00413  -0.1077   0.2348   0.0406  42.2968 104.4642
   2.200   0.9681   0.01758   0.00415  -0.1072   0.2344   0.0417  42.3250 104.7302
   2.400   0.9856   0.01778   0.00415  -0.1066   0.2340   0.0427  42.3518 104.9738
   2.600   1.0034   0.01793   0.00422  -0.1062   0.2337   0.0440  42.3758 105.2537
   2.800   1.0207   0.01817   0.00430  -0.1057   0.2334   0.0454  42.3978 105.5535
   3.000   1.0377   0.01842   0.00436  -0.1051   0.2331   0.0469  42.4193 105.8933
   3.200   1.0547   0.01864   0.00444  -0.1047   0.2328   0.0484  42.4405 106.2020
   3.400   1.0716   0.01892   0.00454  -0.1041   0.2325   0.0498  42.4613 106.5031
   3.600   1.0885   0.01920   0.00462  -0.1036   0.2322   0.0515  42.4819 106.8544
   3.800   1.1052   0.01947   0.00472  -0.1031   0.2319   0.0533  42.5022 107.2108
   4.000   1.1213   0.01980   0.00485  -0.1026   0.2316   0.0553  42.5222 107.5914
   4.200   1.1373   0.02014   0.00496  -0.1020   0.2314   0.0573  42.5423 107.9747
   4.400   1.1537   0.02045   0.00509  -0.1015   0.2311   0.0595  42.5625 108.3683
   4.600   1.1696   0.02082   0.00523  -0.1010   0.2308   0.0619  42.5825 108.7906
   4.800   1.1851   0.02120   0.00538  -0.1005   0.2305   0.0645  42.6026 109.2358
   5.000   1.2005   0.02160   0.00555  -0.0999   0.2303   0.0673  42.6228 109.6901
   5.200   1.2159   0.02200   0.00570  -0.0994   0.2300   0.0701  42.6432 110.1445
   5.400   1.2311   0.02242   0.00588  -0.0988   0.2297   0.0733  42.6639 110.6229
   5.600   1.2457   0.02288   0.00606  -0.0982   0.2294   0.0768  42.6848 111.1384
   5.800   1.2603   0.02335   0.00627  -0.0977   0.2291   0.0805  42.7061 111.6520
   6.000   1.2750   0.02382   0.00646  -0.0971   0.2288   0.0845  42.7278 112.1935
   6.200   1.2893   0.02432   0.00667  -0.0966   0.2285   0.0890  42.7500 112.7733
   6.400   1.3031   0.02486   0.00690  -0.0960   0.2282   0.0938  42.7725 113.3584
   6.600   1.3169   0.02540   0.00712  -0.0954   0.2279   0.0989  42.7956 113.9656
   6.800   1.3308   0.02593   0.00735  -0.0948   0.2275   0.1054  42.8194 114.6804
   7.000   1.3445   0.02649   0.00759  -0.0943   0.2272   0.1123  42.8437 115.4179
   7.200   1.3577   0.02709   0.00784  -0.0937   0.2269   0.1207  42.8686 116.2682
   7.400   1.3711   0.02768   0.00809  -0.0931   0.2265   0.1316  42.8943 117.3198
   7.600   1.3846   0.02827   0.00834  -0.0926   0.2261   0.1504  42.9213 119.0195
   9.200   1.4979   0.03177   0.01050  -0.0900   0.2245   1.0000  43.0454 160.0000
   9.400   1.5114   0.03242   0.01075  -0.0897   0.2243   1.0000  43.0554 160.0000
   9.600   1.5250   0.03306   0.01099  -0.0894   0.2242   1.0000  43.0650 160.0000
   9.800   1.5386   0.03370   0.01122  -0.0891   0.2241   1.0000  43.0751 160.0000
